*KEYWORD_ID
0
*PARAMETER
Rboltz    5.6704E-14
*PARAMETER
Rambient       300.0
*PARAMETER
Rabszero         0.0
*TOOL_FILE
toolpath.crs
*GAUSS_LASER
1000.0 1.0 1.0
*SCALAR_OUT
temp
solid_rate
theta_hist
nid_true
*CONTROL_TERMINATION
$$  ENDTIM    ENDCYC     DTMIN    ENDENG    ENDMAS
   323.452
*CONTROL_TIMESTEP
$$  DTINIT    TSSFAC      ISDO    TSLIMT     DT2MS      LCTM     EROD       E     MSIST
    1.0E-2       1.0
*CONTROL_SOLUTION
$$    SOLN
         0
*DATABASE_NODOUT
$$      DT    BINARY      LCUR      IOPT      DTHF     BINHF
     1.000         0
*MAT_THERMAL_ISOTROPIC
$HMNAME MATS       1MATT1_1
         1   0.00800   1648.15   1673.15     272.5
    0.5000    0.0214
*MAT_THERMAL_ISOTROPIC
$HMNAME MATS       2MATT1_2
         2   0.00800   1648.15   1673.15     272.5
    0.5000    0.0214
*PART
$HWCOLOR COMPS       1       3
Substrate
         1         0         1
$HWCOLOR COMPS       2       4
Build
         2         0         2
*LOAD_NODE_SET
$HMNAME LOADCOLS       1LoadNode_1
         3         1               300.0
$	 moving flux
         2         5                 0.0
$	 Radiation
         2         4                 0.2
$	 convection
         2         3             0.00005
*INITIAL_TEMPERATURE_SET
$HMNAME LOADCOLS       1InitialTemp_1
$HWCOLOR LOADCOLS       1       3
         1     300.0
*DEFINE_CURVE
         1                 1.0       1.0
          1.81080000             18210.0
          1.81080000             18208.0
          1.81080000             18396.0
          1.81080000             18395.0
          1.98320000             18206.0
          1.98320000             18204.0
          2.16170000             18202.0
          2.16170000             18200.0
          2.34020000             18196.0
          2.34020000             18192.0
          2.34020000             18198.0
          2.51650000             18188.0
          2.51650000             18194.0
          2.51650000             18190.0
          2.69290000             18184.0
          2.69290000             18186.0
          2.86920000             18180.0
          2.86920000             18182.0
          3.04550000             18178.0
$ ... 5021 like lines cut
*SET_NODE_LIST
$#     sid       da1       da2       da3       da4    solver      
         1       0.0       0.0       0.0       0.0MECH
$#    nid1      nid2      nid3      nid4      nid5      nid6      nid7      nid8
     18439     18440     18441     18442     18443     18444     18445     18446
     18447     18448     18449     18450     18451     18452     18453     18454
     18455     18456     18457     18458     18459     18460     18461     18462
     18463     18464     18465     18466     18467     18468     18469     18470
     18471     18472     18473     18474     18475     18476     18477     18478
     18479     18480     18481     18482     18483     18484     18485     18486
     18487     18488     18489     18490     18491     18492     18493     18494
     18495     18496     18497     18498     18499     18500     18501     18502
     18503     18504     18505     18506     18507     18508     18509     18510
     18511     18512     18513     18514     18515     18516     18517     18518
     18519     18520     18521     18522     18523     18524     18525     18526
     18527     18528     18529     18530     18531     18532     18533     18534
     18535     18536     18537     18538     18539     18540     18541     18542
     18543     18544     18545     18546     18547     18548     18549     18550
     18551     18552     18553     18554     18555     18556     18557     18558
     18559     18560     18561     18562     18563     18564     18565     18566
     18567     18568     18569     18570     18571     18572     18573     18574
     18575     18576     18577     18578     18579     18580     18581     18582
     18583     18584     18585     18586     18587     18588     18589     18590
     18591     18592     18593     18594     18595     18596     18597     18598
$ ... 2285 like lines cut
*SET_NODE_LIST
$#     sid       da1       da2       da3       da4    solver      
         2       0.0       0.0       0.0       0.0MECH
$#    nid1      nid2      nid3      nid4      nid5      nid6      nid7      nid8
     18439     18440     18441     18442     18443     18444     18445     18446
     18447     18448     18449     18450     18451     18452     18453     18454
     18455     18456     18457     18458     18459     18460     18461     18462
     18463     18464     18465     18466     18467     18468     18469     18470
     18471     18472     18473     18474     18475     18476     18477     18478
     18479     18480     18481     18482     18483     18484     18485     18486
     18487     18488     18489     18490     18491     18492     18493     18494
     18495     18496     18497     18498     18499     18500     18501     18502
     18503     18504     18505     18506     18507     18508     18509     18510
     18511     18512     18513     18514     18515     18516     18517     18518
     18519     18520     18521     18522     18523     18524     18525     18526
     18527     18528     18529     18530     18531     18532     18533     18534
     18535     18536     18537     18538     18539     18540     18541     18542
     18543     18544     18545     18546     18547     18548     18549     18550
     18551     18552     18553     18554     18555     18556     18557     18558
     18559     18560     18561     18562     18563     18564     18565     18566
     18567     18568     18569     18570     18571     18572     18573     18574
     18575     18576     18577     18578     18579     18580     18581     18582
     18583     18584     18585     18586     18587     18588     18589     18590
     18591     18592     18593     18594     18595     18596     18597     18598
$ ... 990 like lines cut
*SET_NODE_LIST
$#     sid       da1       da2       da3       da4    solver      
         3       0.0       0.0       0.0       0.0MECH
$#    nid1      nid2      nid3      nid4      nid5      nid6      nid7      nid8
     18657     18659     18660     18662     18663     18664     18673     18674
     18679     22009     22010     22011     22012     22013     22014     22015
     22041     22042     22043     22044     22045     22046     22047     22048
     22049     22050     22051     22052     22053     22054     22055     22056
     22057     22058     22059     22060     22061     22062     22063     22064
     22065     22066     22067     22068     22069     22070     22071     22072
     22073     22074     22075     22090     22091     22092     22093     22094
     22095     22096     22122     22123     22124     22125     22126     22127
     22128     22129     22130     22131     22132     22133     22134     22135
     22136     22137     22154     22155     22156     22157     22158     22159
     22160     22161     22162     22163     22164     22165     22166     22167
     22168     22169     22383     22384     22385     22386     22387     22388
     22389     22390     22391     22392     22393     22394     22395     22396
     22397     22398     22399     22400     22401     22402     22403     22404
     22405     22406     22407     22408     22409     22410     22411     22412
     22413     22414     22415     22416     22417     22418     22419     22435
     22436     22437     22438     22439     22440     22441     22442     22443
     22444     22445     22446     22447     22448     22449     22465     22466
     22467     22468     22469     22470     22471     22472     22473     22474
     22475     22476     22477     22478     22479     22567     22568     22569
$ ... 110 like lines cut
*ELEMENT_SOLID
$#   eid     pid      n1      n2      n3      n4      n5      n6      n7      n8
   15071       1   18443   18710   22642   18739   18439   18680   22628   18709
   15072       1   18710   18444   18711   22642   18680   18440   18681   22628
   15073       1   18739   22642   22643   18738   18709   22628   22629   18708
   15074       1   22642   18711   18712   22643   22628   18681   18682   22629
   15075       1   18738   22643   22644   18737   18708   22629   22630   18707
   15076       1   22643   18712   18713   22644   22629   18682   18683   22630
   15077       1   18737   22644   22645   18736   18707   22630   22631   18706
   15078       1   22644   18713   18714   22645   22630   18683   18684   22631
   15079       1   18736   22645   22646   18735   18706   22631   22632   18705
   15080       1   22645   18714   18715   22646   22631   18684   18685   22632
   15081       1   18735   22646   22647   18734   18705   22632   22633   18704
   15082       1   22646   18715   18716   22647   22632   18685   18686   22633
   15083       1   18734   22647   22648   18733   18704   22633   22634   18703
   15084       1   22647   18716   18717   22648   22633   18686   18687   22634
   15085       1   18733   22648   22649   18732   18703   22634   22635   18702
   15086       1   22648   18717   18718   22649   22634   18687   18688   22635
   15087       1   18732   22649   22650   18731   18702   22635   22636   18701
   15088       1   22649   18718   18719   22650   22635   18688   18689   22636
   15089       1   18731   22650   22651   18730   18701   22636   22637   18700
   15090       1   22650   18719   18720   22651   22636   18689   18690   22637
$ ... 15050 like lines cut
*NODE
$#   nid               x               y               z      tc      rc  
   18439             0.0            -8.0            26.0       0       0
   18440             0.0            -6.0            26.0       0       0
   18441            -6.0             0.0            26.0       0       0
   18442            -8.0             0.0            26.0       0       0
   18443             0.0            -8.0            25.0       0       0
   18444             0.0            -6.0            25.0       0       0
   18445            -6.0             0.0            25.0       0       0
   18446            -8.0             0.0            25.0       0       0
   18447             8.0             0.0            26.0       0       0
   18448             6.0             0.0            26.0       0       0
   18449             8.0             0.0            25.0       0       0
   18450             6.0             0.0            25.0       0       0
   18451             0.0             8.0            26.0       0       0
   18452             0.0             6.0            26.0       0       0
   18453             0.0             8.0            25.0       0       0
   18454             0.0             6.0            25.0       0       0
   18455             6.0             0.0            24.0       0       0
   18456             8.0             0.0            24.0       0       0
   18457             0.0             8.0            24.0       0       0
   18458             0.0             6.0            24.0       0       0
$ ... 18418 like lines cut
*END
*END